42
Optimization of PTPO w/o sidechains
C        -1.0148705600   -0.9427605126   -0.0602316008
C        -1.3183314912    0.4216339495   -0.0363907891
C         0.3025460918   -1.3807975926   -0.0584658898
C         3.8525991816   -1.1702355222   -0.0266303868
C        -3.8364045306    1.1691249017   -0.0411210819
C         1.3339226801   -0.4247988252   -0.0317389076
C         1.0304695492    0.9396007344   -0.0077835278
C        -0.2869435038    1.3776617651   -0.0096513575
H        -1.8377409141   -1.6438149741   -0.0809997725
O        -0.6671987287    2.6681993329    0.0126321533
O         0.6827696596   -2.6713601158   -0.0806577116
C         2.6935506022   -0.8415347567   -0.0293315556
C         5.2525197391   -1.5515088381   -0.0240927859
S         5.7801314390    1.2295838774    0.0064297613
H         7.6778248757    2.7598622776    0.0313216316
C         6.2283169083   -0.4445179218   -0.0072583675
O         5.6036186275   -2.7109087321   -0.0349766464
H         9.3539792555    0.7410021867    0.0215645585
C         7.5892761563   -0.5931490779   -0.0011258060
C         7.4246515468    1.7101103849    0.0198465204
H         8.0544366011   -1.5690951392   -0.0078842847
C         8.2770857638    0.6428174914    0.0145555531
C        -2.6778521979    0.8386832668   -0.0387589104
C        -5.2345908976    1.5569267270   -0.0406103064
H         1.8533454504    1.6406328453    0.0130952691
O        -5.5796681913    2.7181833746   -0.0377754695
C        -6.2159983890    0.4548768165   -0.0433074572
C        -7.4226344614   -1.6941195185   -0.0470570067
S        -5.7758370350   -1.2214428422   -0.0459917233
C        -8.2699615917   -0.6227234884   -0.0452787281
C        -7.5762471277    0.6100012240   -0.0429773402
H        -7.6809762202   -2.7426698235   -0.0489886521
H        -8.0367976650    1.5881552003   -0.0413294856
C        -0.3179065307   -3.6678678911   -0.1001015550
H        -0.9412236823   -3.5908265673   -0.9978550583
H         0.2125190189   -4.6173557872   -0.1111503110
C         0.3333254131    3.6648639635    0.0322422261
H         0.9647853703    3.6139104176   -0.8616799656
H        -0.1972558684    4.6142600889    0.0436299278
H        -9.3473293241   -0.7158617670   -0.0453865456
H        -0.9494765448   -3.6165611824    0.7937233377
H         0.9567750462    3.5876680227    0.9298907668